Version 4.1
SHEET 1 1740 680
WIRE 160 -160 -144 -160
WIRE 384 -160 160 -160
WIRE -144 -112 -144 -160
WIRE -144 16 -144 -48
WIRE -16 16 -144 16
WIRE 112 16 48 16
WIRE 160 16 160 -160
WIRE 384 16 384 -160
WIRE -144 128 -144 16
WIRE 272 144 224 144
WIRE 384 144 384 96
WIRE 384 144 336 144
WIRE -144 240 -144 208
WIRE 160 240 160 80
WIRE 160 240 -144 240
WIRE 224 240 224 144
WIRE 224 240 160 240
WIRE 272 240 224 240
WIRE 384 240 384 144
WIRE 384 240 352 240
WIRE 384 272 384 240
FLAG 384 272 0
SYMBOL voltage 384 0 R0
SYMATTR InstName V1
SYMATTR Value SINE(0 100 50)
SYMBOL res -160 112 R0
SYMATTR InstName R1
SYMATTR Value {R2}
SYMBOL res 368 224 R90
WINDOW 0 0 56 VBottom 2
WINDOW 3 32 56 VTop 2
SYMATTR InstName R2
SYMATTR Value 100
SYMBOL cap -160 -112 R0
SYMATTR InstName C1
SYMATTR Value 45n
SYMBOL Misc\\DIAC 48 -16 R90
WINDOW 0 0 32 VBottom 2
WINDOW 3 64 32 VTop 2
SYMATTR InstName U1
SYMATTR Value DB3
SYMBOL Misc\\TRIAC 128 80 M180
SYMATTR InstName U3
SYMATTR Value BTA12-600B
SYMBOL cap 336 128 R90
WINDOW 0 0 32 VBottom 2
WINDOW 3 32 32 VTop 2
SYMATTR InstName C2
SYMATTR Value 10µ
TEXT -144 264 Left 2 !.tran 0.02
TEXT -144 288 Left 2 !.param R2=100k
TEXT -144 312 Left 2 !.step param R2 10k 300k 50k
TEXT -144 392 Left 2 !.inc "C:\\Users\\alexe\\study\\electronic-devices-labs\\lib\\st_diacs.lib"
TEXT -144 368 Left 2 !.inc "C:\\Users\\alexe\\study\\electronic-devices-labs\\lib\\st_standard_snubberless_triacs.lib"
TEXT -144 336 Left 2 !.meas tran Vavg AVG V(n004)
