Version 4.1
SHEET 1 1252 680
WIRE -80 -288 -224 -288
WIRE -80 -272 -80 -288
WIRE -224 -144 -224 -288
WIRE -288 -96 -432 -96
WIRE -80 -96 -80 -192
WIRE -80 -96 -224 -96
WIRE 224 -96 -80 -96
WIRE -432 80 -432 -96
WIRE -432 208 -432 160
WIRE -432 208 -512 208
WIRE -336 208 -432 208
WIRE -224 208 -256 208
WIRE -80 208 -80 -96
WIRE -80 208 -144 208
WIRE 224 208 224 -96
WIRE -432 224 -432 208
WIRE -432 320 -432 304
WIRE -176 320 -432 320
WIRE -80 320 -80 208
WIRE -80 320 -112 320
WIRE 224 368 224 288
WIRE 224 368 -112 368
FLAG -512 208 0
SYMBOL Misc\\SCR -288 -112 M90
SYMATTR InstName VS1
SYMATTR Value EC103D2
SYMBOL Misc\\SCR -176 336 R270
SYMATTR InstName VS2
SYMATTR Value EC103D2
SYMBOL res -352 192 M90
WINDOW 0 0 56 VBottom 2
WINDOW 3 32 56 VTop 2
SYMATTR InstName RH
SYMATTR Value 10
SYMBOL voltage 224 304 M180
WINDOW 0 24 96 Left 2
WINDOW 3 24 16 Left 2
SYMATTR InstName G2
SYMATTR Value PULSE(0 5 {delay+T/2} 0 0 {width} {T})
SYMBOL voltage -80 -288 R0
SYMATTR InstName G1
SYMATTR Value PULSE(0 5 {delay} 0 0 {width} {T})
SYMBOL voltage -432 64 M0
WINDOW 123 0 0 Left 0
WINDOW 39 0 0 Left 0
SYMATTR InstName V1
SYMATTR Value SINE(0 100 {f} 0)
SYMBOL voltage -432 208 M0
SYMATTR InstName V2
SYMATTR Value SINE(0 100 {f} 0)
SYMBOL ind -128 192 R90
WINDOW 0 5 56 VBottom 2
WINDOW 3 32 56 VTop 2
SYMATTR InstName L1
SYMATTR Value 20m
TEXT 320 88 Left 2 !.inc "C:\\Users\\alexe\\study\\electronic-devices-labs\\lib\\Thyristor_SCR.lib"
TEXT 320 112 Left 2 !.param f=50 T=1/f
TEXT 320 136 Left 2 !.param delay=alpha*T/360
TEXT 320 160 Left 2 !.param width=50u
TEXT 320 184 Left 2 !.param alpha=150
TEXT 320 208 Left 2 !.tran 0.1
