* DEDZV8_2B D model
* PKG: EMD2,Vz=8.2V at Iz=5mA,Pd=150mW
* Model Generated by ROHM
* All Rights Reserved
* Commercial Use or
* Resale Restricted
* Date: 2015/09/01
.MODEL DEDZV8_2B D
+ IS=2.2428E-16
+ N=1.0295
+ RS=.26107
+ IKF=1.2319
+ CJO=2.2200E-11
+ M=.38384
+ VJ=.75935
+ ISR=2.7900E-12
+ NR=3.3000
+ BV=8.1900
+ IBV=5.0000E-3
+ TT=69.000E-9
+ NBV=0.1000
+ TBV1=0.5500E-3
+ NBVL=14.000
+ IBVL=10.000E-9
