.model DZD3V9 D
+ IS=2.8185E-16
+ N=1.0090
+ RS=.20415
+ IKF=1.6248
+ CJO=5.9097E-11
+ M=.32508
+ VJ=.62394
+ ISR=4.6185E-12
+ NR=3.7000
+ BV=4.5300
+ TT=3.3000E-8
+ NBVL=2.0000
+ IBVL=5.0000
