* EDZV3_9B D model
* PKG: EMD2,Vz=3.9V at Iz=5mA,Pd=150mW
* Model Generated by ROHM
* All Rights Reserved
* Commercial Use or Resale Restricted
* Date: 2015/09/02
*****************A C
.SUBCKT EDZV3_9B 1 2
.PARAM T0=25
.FUNC I1(V) {IF(V<0,-2.259E-08*((-V*(1+5.164E-04*(TEMP-T0)+3.953E-07*(TEMP-T0)**2))**8.675E+00+
+           (-V*(1+5.164E-04*(TEMP-T0)+3.953E-07*(TEMP-T0)**2))**6.898E+00),0)}
R1 1 2 1E15
E1 3 0 VALUE={V(1,2)}
V1 3 4 0
D1 4 0 D1
V2 3 5 0
D2 5 0 D2
G1 1 2 VALUE={I1(V(3))+I(V1)-I(V2)*IF(V(3)<0,1,0)}
.MODEL D1 D
+ IS=2.8185E-16
+ N=1.0090
+ RS=.20415
+ IKF=1.6248
+ CJO=5.9097E-11
+ M=.32508
+ VJ=.62394
+ ISR=4.6185E-12
+ NR=3.7000
+ BV=4.5300
+ TT=3.3000E-8
+ NBVL=2.0000
+ IBVL=5.0000
.MODEL D2 D
+ IS=2.8185E-16
+ N=1.0090
+ RS=.20415
+ IKF=1.6248
+ M=.32508
+ VJ=.62394
.ENDS EDZV3_9B
