* DEDZV13B D model
* PKG: EMD2,Vz=13V at Iz=5mA,Pd=150mW
* Model Generated by ROHM
* All Rights Reserved
* Commercial Use or
* Resale Restricted
* Date: 2015/09/02
.MODEL DEDZV13B D
+ IS=3.3892E-16
+ N=1.0385
+ RS=.24887
+ IKF=.82579
+ CJO=1.3400E-11
+ M=.45658
+ VJ=.75643
+ ISR=5.154E-13
+ NR=2.7000
+ BV=13.220
+ IBV=1.0000E-3
+ TT=1.8500E-7
+ NBV=0.8800
+ TBV1=0.7400E-3
+ NBVL=39.200
+ IBVL=5.000E-12
