.model DZD5V1 D
+ IS=1.3945E-16
+ N=1.0116
+ RS=0.1749
+ IKF=83.225E-3
+ CJO=3.5067E-11
+ M=0.3427
+ VJ=0.5278
+ ISR=5.8367E-12
+ NR=2.89
+ BV=5.09
+ IBV=5m
+ TT=1n
+ NBVL=4
+ IBVL=1m
