Version 4.1
SHEET 1 1416 680
WIRE 0 144 -112 144
WIRE 176 144 80 144
WIRE 256 144 176 144
WIRE 352 144 256 144
WIRE -112 176 -112 144
WIRE 352 176 352 144
WIRE 176 192 176 144
WIRE 256 192 256 144
WIRE -112 304 -112 256
WIRE 48 304 -112 304
WIRE 176 304 176 256
WIRE 176 304 48 304
WIRE 256 304 256 256
WIRE 256 304 176 304
WIRE 352 304 352 256
WIRE 352 304 256 304
WIRE 48 336 48 304
FLAG 48 336 0
SYMBOL voltage -112 160 R0
SYMATTR InstName V2
SYMATTR Value 16
SYMBOL res 96 128 R90
WINDOW 0 0 56 VBottom 2
WINDOW 3 31 42 VTop 2
SYMATTR InstName R1
SYMATTR Value 755.9773090503
SYMBOL zener 192 256 R180
WINDOW 0 24 64 Left 2
WINDOW 3 24 0 Left 2
SYMATTR InstName D2
SYMATTR Value EDZV8_2B
SYMBOL cap 240 192 R0
SYMATTR InstName C2
SYMATTR Value 1µ
SYMBOL res 336 160 R0
SYMATTR InstName R2
SYMATTR Value 3.5k
TEXT -128 376 Left 2 !.inc "C:\\Users\\alexe\\study\\electronic-devices-labs\\lib\\edzv8_2b_ltspice.lib"
TEXT -128 408 Left 2 !.tran 1ms 100ms
