Version 4.1
SHEET 1 880 680
WIRE 144 48 64 48
WIRE 288 48 224 48
WIRE 480 96 192 96
WIRE 480 128 480 96
WIRE 192 144 192 96
WIRE -48 160 -128 160
WIRE 64 160 64 48
WIRE 64 160 16 160
WIRE 160 160 64 160
WIRE -128 176 -128 160
WIRE 288 176 288 48
WIRE 288 176 224 176
WIRE 368 176 288 176
WIRE 160 192 112 192
WIRE 480 240 480 208
WIRE 480 240 416 240
WIRE 112 256 112 192
WIRE 416 256 416 240
WIRE -128 272 -128 256
WIRE 480 288 480 240
WIRE 192 384 192 208
WIRE 480 384 480 368
WIRE 480 384 192 384
FLAG -128 272 0
FLAG 112 256 0
FLAG 416 256 0
SYMBOL OpAmps\\LT1037 192 112 R0
SYMATTR InstName U1
SYMBOL voltage -128 160 R0
WINDOW 123 24 124 Left 2
WINDOW 39 0 0 Left 0
SYMATTR Value2 AC 0.1
SYMATTR InstName V1
SYMATTR Value 0
SYMBOL res 240 32 R90
WINDOW 0 0 56 VBottom 2
WINDOW 3 32 56 VTop 2
SYMATTR InstName R1
SYMATTR Value 50k
SYMBOL voltage 480 112 R0
SYMATTR InstName V2
SYMATTR Value {Vcc}
SYMBOL voltage 480 272 R0
SYMATTR InstName V3
SYMATTR Value {Vcc}
SYMBOL cap 16 144 R90
WINDOW 0 0 32 VBottom 2
WINDOW 3 32 32 VTop 2
SYMATTR InstName C1
SYMATTR Value 3.2n
TEXT -144 312 Left 2 !.param Vcc=15
TEXT 344 160 Left 2 ;Vout
TEXT -144 344 Left 2 !.ac dec 100 1 100k
