Version 4.1
SHEET 1 880 680
WIRE 304 -32 272 -32
WIRE 432 -32 384 -32
WIRE 144 80 0 80
WIRE 272 80 272 -32
WIRE 272 80 224 80
WIRE 320 80 272 80
WIRE 432 96 432 -32
WIRE 432 96 384 96
WIRE 512 96 432 96
WIRE 320 112 288 112
WIRE 0 128 0 80
WIRE 0 224 0 208
WIRE 208 224 112 224
WIRE 288 224 288 112
WIRE 112 256 112 224
WIRE 288 256 288 224
WIRE 112 352 112 336
WIRE 288 352 288 336
FLAG 0 224 0
FLAG 112 352 0
FLAG 288 352 0
SYMBOL voltage 0 112 R0
SYMATTR InstName V1
SYMBOL voltage 112 240 R0
SYMATTR InstName V2
SYMBOL res 240 64 R90
WINDOW 0 0 56 VBottom 2
WINDOW 3 32 56 VTop 2
SYMATTR InstName R1
SYMBOL res 400 -48 R90
WINDOW 0 0 56 VBottom 2
WINDOW 3 32 56 VTop 2
SYMATTR InstName R2
SYMBOL res 304 208 R90
WINDOW 0 0 56 VBottom 2
WINDOW 3 32 56 VTop 2
SYMATTR InstName R3
SYMBOL res 272 240 R0
SYMATTR InstName R4
SYMBOL OpAmps\\LT1037 352 32 R0
SYMATTR InstName U1
